Circuit: * Z:\home\lhcb\rich-pd\pmttest\LTspice\Draft2.asc

Limiting rise time of source i1 to 1e-013
Limiting fall time of source i1 to 1e-013
Direct Newton iteration for .op point succeeded.

Date: Thu Apr 30 15:54:40 2015
Total elapsed time: 1.596 seconds.

tnom = 27
temp = 27
method = modified trap
totiter = 100168
traniter = 100161
tranpoints = 50081
accept = 50067
rejected = 14
matrix size = 9
fillins = 1
solver = Normal
Matrix Compiler1: 592 bytes object code size  0.5/0.5/[0.4]
Matrix Compiler2: 759 bytes object code size  0.5/0.4/[0.4]


